Version 4
SHEET 1 3124 2156
WIRE -1088 -144 -1200 -144
WIRE -960 -144 -1008 -144
WIRE -832 -144 -896 -144
WIRE -144 -144 -480 -144
WIRE 208 -144 -64 -144
WIRE 656 -144 208 -144
WIRE -832 -64 -832 -144
WIRE -800 -64 -832 -64
WIRE -688 -64 -720 -64
WIRE -1200 16 -1200 -144
WIRE -1088 16 -1200 16
WIRE -960 16 -1008 16
WIRE -832 16 -832 -64
WIRE -832 16 -896 16
WIRE 656 16 656 -144
WIRE -1200 32 -1200 16
WIRE 208 64 208 -144
WIRE -1200 144 -1200 112
WIRE -928 144 -1200 144
WIRE 464 144 416 144
WIRE -1200 192 -1200 144
WIRE 464 192 416 192
WIRE -32 224 -80 224
WIRE 48 224 -32 224
WIRE 464 240 416 240
WIRE -32 288 -80 288
WIRE 48 288 -32 288
WIRE -1200 304 -1200 272
WIRE 656 320 656 96
WIRE 656 320 416 320
WIRE 768 320 656 320
WIRE 1072 320 1024 320
WIRE 1216 320 1184 320
WIRE 1360 320 1328 320
WIRE 1456 320 1440 320
WIRE 1520 320 1456 320
WIRE 1696 320 1600 320
WIRE 1760 320 1696 320
WIRE -1088 352 -1200 352
WIRE -960 352 -1008 352
WIRE -832 352 -896 352
WIRE 1696 384 1696 320
WIRE 464 400 416 400
WIRE 1024 400 1024 320
WIRE 1184 416 1184 320
WIRE 1328 416 1328 320
WIRE 1456 416 1456 320
WIRE -832 432 -832 352
WIRE -800 432 -832 432
WIRE -688 432 -720 432
WIRE -32 448 -80 448
WIRE 48 448 -32 448
WIRE 464 448 416 448
WIRE 464 496 416 496
WIRE 1696 496 1696 464
WIRE -1200 512 -1200 352
WIRE -1088 512 -1200 512
WIRE -960 512 -1008 512
WIRE -832 512 -832 432
WIRE -832 512 -896 512
WIRE -32 512 -80 512
WIRE 48 512 -32 512
WIRE 1024 512 1024 480
WIRE 1696 512 1696 496
WIRE -1200 528 -1200 512
WIRE 1184 528 1184 496
WIRE 1328 528 1328 496
WIRE 1456 528 1456 496
WIRE 1024 560 1024 512
WIRE 1184 560 1184 528
WIRE 1328 560 1328 528
WIRE 1456 560 1456 528
WIRE 752 576 752 544
WIRE 1024 576 1024 560
WIRE 320 592 320 576
WIRE -1200 640 -1200 608
WIRE -928 640 -1200 640
WIRE -1200 688 -1200 640
WIRE 752 688 752 656
WIRE 64 704 -480 704
WIRE 208 704 208 576
WIRE 208 704 144 704
WIRE 320 704 320 672
WIRE 1024 736 1024 624
WIRE 1184 736 1184 624
WIRE 1184 736 1024 736
WIRE 1328 736 1328 624
WIRE 1328 736 1184 736
WIRE 1456 736 1456 624
WIRE 1456 736 1328 736
WIRE 1696 736 1696 576
WIRE 1696 736 1456 736
WIRE 1776 736 1696 736
WIRE 208 752 208 704
WIRE -1200 800 -1200 768
WIRE 752 800 752 768
FLAG -480 -144 V+
FLAG -480 704 V-
FLAG 768 320 Mid
FLAG 208 752 0
FLAG -32 224 VG1
FLAG -32 448 VG2
FLAG -688 432 G2
IOPIN -688 432 Out
FLAG -928 640 K2
IOPIN -928 640 In
FLAG -80 224 G1
IOPIN -80 224 Out
FLAG -80 448 G2
IOPIN -80 448 Out
FLAG 208 -144 High
FLAG -32 288 VK1
FLAG -32 512 VK2
FLAG -80 288 K1
IOPIN -80 288 In
FLAG -80 512 K2
IOPIN -80 512 In
FLAG 464 192 TjQ1
FLAG 752 544 HS
FLAG 752 800 0
FLAG 464 400 HS
FLAG 464 240 HS
FLAG 464 448 TjQ2
FLAG 464 144 TjD1
FLAG 464 496 TjD2
FLAG 320 704 0
FLAG -1200 800 0
FLAG -688 -64 G1
IOPIN -688 -64 Out
FLAG -928 144 K1
IOPIN -928 144 In
FLAG -1200 304 0
FLAG 1760 320 V+
FLAG 1776 736 V-
FLAG 1024 512 VC1
FLAG 1184 528 VC2
FLAG 1328 528 VC3
FLAG 1456 528 VC4
FLAG 1696 496 VC5
DATAFLAG 16 224 "$-V(VK1)"
SYMBOL ind -48 -160 R90
WINDOW 0 5 56 VBottom 2
WINDOW 3 32 56 VTop 2
SYMATTR InstName Lbus
SYMATTR Value {Lbus}
SYMATTR SpiceLine Rser=10m
SYMBOL ind 640 0 R0
SYMATTR InstName LoadInd
SYMATTR Value {L}
SYMBOL res -992 336 R90
WINDOW 0 0 56 VBottom 2
WINDOW 3 32 56 VTop 2
SYMATTR InstName R3
SYMATTR Value {Rg+RgIcOn}
SYMBOL voltage -1200 512 M0
WINDOW 123 0 0 Left 2
WINDOW 39 24 44 Left 2
WINDOW 3 -1448 60 Invisible 2
SYMATTR Value PWL(0u {Voff} {Start} {Voff} {RiseT1} {Von} {PulseT} {Von} {FallT} {Voff} {offT} {Voff} {RiseT2} {Von} {OnT} {Von} {FallT2} {Voff})
SYMATTR InstName VgateL
SYMBOL res -1216 672 R0
SYMATTR InstName R1
SYMATTR Value 10Meg
SYMBOL res 736 560 R0
SYMATTR InstName RSA
SYMATTR Value 40
SYMBOL voltage 752 672 R0
SYMATTR InstName VA
SYMATTR Value 25
SYMBOL res 304 576 R0
SYMATTR InstName RBPC
SYMATTR Value 10m
SYMBOL res -992 496 R90
WINDOW 0 0 56 VBottom 2
WINDOW 3 32 56 VTop 2
SYMATTR InstName R5
SYMATTR Value {Rg+RgIcOff}
SYMBOL res -992 -160 R90
WINDOW 0 0 56 VBottom 2
WINDOW 3 32 56 VTop 2
SYMATTR InstName R2
SYMATTR Value {Rg+RgIcOn}
SYMBOL res -1216 176 R0
SYMATTR InstName R4
SYMATTR Value 10Meg
SYMBOL diode -960 -128 R270
WINDOW 0 32 32 Invisible 2
WINDOW 3 0 32 VBottom 2
SYMATTR InstName D3
SYMATTR Value D1
SYMBOL res -992 0 R90
WINDOW 0 0 56 VBottom 2
WINDOW 3 32 56 VTop 2
SYMATTR InstName R8
SYMATTR Value {Rg+RgIcOff}
SYMBOL voltage -1200 16 R0
WINDOW 0 -107 8 Left 2
WINDOW 3 -92 102 Left 2
SYMATTR InstName VgateH
SYMATTR Value {Voff}
SYMBOL diode -896 0 R90
WINDOW 0 0 32 Invisible 2
WINDOW 3 32 32 VTop 2
SYMATTR InstName D1
SYMATTR Value D1
SYMBOL diode -960 368 R270
WINDOW 0 32 32 Invisible 2
WINDOW 3 0 32 VBottom 2
SYMATTR InstName D2
SYMATTR Value D1
SYMBOL diode -896 496 R90
WINDOW 0 0 32 Invisible 2
WINDOW 3 32 32 VTop 2
SYMATTR InstName D4
SYMATTR Value D1
SYMBOL ind -704 -80 R90
WINDOW 0 5 56 Invisible 2
WINDOW 3 32 56 VTop 2
SYMATTR InstName L1
SYMATTR Value {Lh}
SYMATTR SpiceLine Rser=0
SYMBOL ind -704 416 R90
WINDOW 0 5 56 Invisible 2
WINDOW 3 32 56 VTop 2
SYMATTR InstName L2
SYMATTR Value {Ll}
SYMATTR SpiceLine Rser=0
SYMBOL cap 1008 560 R0
SYMATTR InstName C1
SYMATTR Value {Cbus}
SYMBOL cap 1168 560 R0
SYMATTR InstName C2
SYMATTR Value {Cbus}
SYMBOL cap 1312 560 R0
SYMATTR InstName C3
SYMATTR Value {Cbus}
SYMBOL cap 1440 560 R0
SYMATTR InstName C4
SYMATTR Value {Cbus}
SYMBOL ind 1008 384 R0
SYMATTR InstName L3
SYMATTR Value {Ls}
SYMBOL ind 1168 400 R0
SYMATTR InstName L4
SYMATTR Value {Ls}
SYMBOL ind 1312 400 R0
SYMATTR InstName L5
SYMATTR Value {Ls}
SYMBOL ind 1440 400 R0
SYMATTR InstName L6
SYMATTR Value {Ls}
SYMBOL ind 1168 304 R90
WINDOW 0 5 56 VBottom 2
WINDOW 3 32 56 VTop 2
SYMATTR InstName L7
SYMATTR Value {Ls1}
SYMBOL ind 1312 304 R90
WINDOW 0 5 56 VBottom 2
WINDOW 3 32 56 VTop 2
SYMATTR InstName L8
SYMATTR Value {Ls1}
SYMBOL ind 1456 304 R90
WINDOW 0 5 56 VBottom 2
WINDOW 3 32 56 VTop 2
SYMATTR InstName L9
SYMATTR Value {Ls1}
SYMBOL ind 1616 304 R90
WINDOW 0 5 56 VBottom 2
WINDOW 3 32 56 VTop 2
SYMATTR InstName L10
SYMATTR Value {Ls1}
SYMBOL cap 1680 512 R0
SYMATTR InstName C5
SYMATTR Value 1µ
SYMBOL ind 1680 368 R0
SYMATTR InstName L11
SYMATTR Value 10n
SYMBOL SiCModule\\CAB006A12GM3_LTspice 64 576 R0
SYMATTR InstName U1
SYMATTR SpiceLine Thermals=1 BPC=1 level=3 Rp=100
SYMBOL res 160 688 R90
WINDOW 0 0 56 VBottom 2
WINDOW 3 32 56 VTop 2
SYMATTR InstName R6
SYMATTR Value 0.0001
TEXT 736 -176 Right 2 ;Load Inductor
TEXT -2016 824 Left 2 !.tran {tOff}
TEXT -2016 696 Left 2 !.param tOff = FallT2 + 9000u
TEXT -2016 440 Left 2 !.param Start = 1u
TEXT -2016 504 Left 2 !.param PulseT = RiseT1+ChargePulseTime
TEXT -2016 536 Left 2 !.param FallT = PulseT + 10n
TEXT -2016 568 Left 2 !.param OffT = FallT + OffPulseTime
TEXT -2016 600 Left 2 !.param RiseT2 = OffT + 10n
TEXT -2016 632 Left 2 !.param OnT = RiseT2+ ChargePulseTime2
TEXT -2016 664 Left 2 !.param FallT2 = OnT + 10n
TEXT -2016 472 Left 2 !.param RiseT1=Start + 10n
TEXT -2008 408 Left 2 ;Gate Drive Timing
TEXT -1392 -248 Left 4 ;Gate Drive
TEXT -2008 -248 Left 4 ;Adjustable Variables
TEXT -584 -248 Left 4 ;Double Pulse Test Bench
TEXT -2016 224 Left 2 !.param Lbus = 1n\n.param Rshunt = 2.5m\n.param Cgdh = 10p\n.param Cgdl = 10p
TEXT -2016 0 Left 2 !.param Von = 15\n.param Voff = -4\n.param Rg = 1\n.param RgIcOn = 0.5\n.param RgIcOff = 0.5\n.param Lh = 13n\n.param Ll = 10n
TEXT -2024 -176 Left 2 !.param Vbus = 600\n.param L = 100u\n.param ChargePulseTime = 50u\n.param OffPulseTime = 50u\n.param ChargePulseTime2 = 10u
TEXT -2008 -200 Left 2 ;Operating Conditions
TEXT -2016 -32 Left 2 ;Gate Drive
TEXT -2016 200 Left 2 ;Misc Parameters
TEXT 464 432 Left 0 ;Die temp
TEXT 464 176 Left 0 ;Die temp
TEXT -2016 792 Left 2 !.TEMP 25
TEXT 792 480 Right 2 ;Coolant
TEXT 464 128 Left 0 ;Sch temp
TEXT 464 480 Left 0 ;Sch temp
TEXT -1120 824 Left 2 !.model D1 D(Ron=1m Roff=1G Vfwd=1m)
TEXT -1040 888 Center 2 ;If turn-on and turn-off gate resistance are equal: \nRemove diodes and connect voltage sources directly to G1/G2
TEXT 752 888 Center 2 ;RSA sets thermal resistance between the module case and the coolant\nVA sets the coolant temperature
TEXT -8 -256 Left 2 ;Note: This is an ideal double-pulse test circuit intended for use with predictive SPICE models.\nSwitching losses may not match the datasheet exactly.
TEXT -2008 1088 Left 2 ;Ensure you have the correct symbol and 'WS_Halfbridge.lib' in this circuit's directory or a defined library\n \nRight-click the symbol to edit advanced features in the Spiceline\n \nLevel: Complexity of the body diode. 1 = simple body diode, 2 = full third quadrant (Vgs, Tj) with no reverse recovery, 3 = full third quadrant with reverse recovery\nRp: parallel resistance to package inductance. Set to 1m for increased speed, but less accuracy\nThermals: Complexity of the thermal model. Thermals=1 uses a closed-loop thermal network, Thermals=0 uses a static temp defind at the Tj pins or by the global temperature\nBPC: Presence of baseplate capacitance or not. BPC=0 disables baseplate capacitance, BPC=1 enables baseplate capacitance\n \nRead provided documentation for full explanation on how to properly use the models
TEXT -1744 904 Left 2 !.param Ls = 87n\n.param Ls1 = 35n\n.param Cbus = 150u
TEXT -2024 880 Left 2 !.ic V(VC1)={Vbus}\n.ic V(VC2)={Vbus}\n.ic V(VC3)={Vbus}\n.ic V(VC4)={Vbus}\n.ic V(VC5)={Vbus}
RECTANGLE Normal -624 848 -1408 -208 2
RECTANGLE Normal 800 272 576 -160 1
RECTANGLE Normal -1424 368 -2032 -208 2
RECTANGLE Normal 880 848 -592 -208
RECTANGLE Normal 864 832 640 496 1
RECTANGLE Normal -1424 848 -2032 384 2
RECTANGLE Normal 416 576 48 64
RECTANGLE Normal 112 1376 -2032 1040 2
